/*--------------------------------*- C++ -*----------------------------------*\
  =========                 |
  \\      /  F ield         | OpenFOAM: The Open Source CFD Toolbox
   \\    /   O peration     | Website:  https://openfoam.org
    \\  /    A nd           | Version:  10
     \\/     M anipulation  |
\*---------------------------------------------------------------------------*/
FoamFile
{
    version     1.0;
    format      ascii;
    class       dictionary;
    location    "constant";
    object      fvModels;
}
reactionSourceCOMassIW
{
    type            coded;
    active          yes;
    name	        reactionSourceCOMassIW;
    selectionMode   all;

    field 		        COMass;

    codeInclude
    #{
        #include "fvCFD.H"
    #};

    codeAddRhoSup
    #{        
        #include "../../constant/rnTerms/loadCommonData.H"      
        
        word currSpName("CO");
        
        #include "../../constant/rnTerms/r_powerLawV3.H"                 
    #};
}


reactionSourceO2IW
{
    type            coded;
    active          yes;
    name	        reactionSourceO2IW;
    selectionMode   all;

    field 		        O2Mass;

    codeInclude
    #{
        #include "fvCFD.H"
    #};

    codeAddRhoSup
    #{            
        #include "../../constant/rnTerms/loadCommonData.H"      
        
        word currSpName("O2");
        
        #include "../../constant/rnTerms/r_powerLawV3.H"                 
    #};
}

reactionSourceCO2IW
{
    type            coded;
    active          yes;
    name	        reactionSourceCO2IW;
    selectionMode   all;

    field 		        CO2Mass;

    codeInclude
    #{
        #include "fvCFD.H"
    #};

    codeAddRhoSup
    #{            
        #include "../../constant/rnTerms/loadCommonData.H"         
        
        word currSpName("CO2");
        
        #include "../../constant/rnTerms/r_powerLawV3.H"                  //load reaction source
    #};
}

enthalpySourceINWALL
{
    type            coded;	
    active          yes;
    name	        enthalpySourceINWALL;
    selectionMode   all;

    field 		        "T";
    
    codeInclude
    #{
        #include "fvCFD.H"
    #};

    codeAddRhoSup
    #{            
        #include "../../constant/rnTerms/loadCommonData.H"     
                    
        #include "../../constant/rnTerms/compEnthV2.H"                 
    #};
}
// reactionSourceEthyleneIW
// {
//     type            coded;
//     active          yes;
//     name	        reactionSourceCOIW;
//     selectionMode   all;

//     // field 		        CO;
//     field 		        ethylene;

//     codeInclude
//     #{
//         #include "fvCFD.H"
//     #};

//     codeAddRhoSup
//     #{        
//         #include "../../constant/rnTerms/loadCommonData.H"      
        
//         word currSpName("ethylene");
        
//         #include "../../constant/rnTerms/r_powerLawV3.H"                 
//     #};
// }

// reactionSourceProdIW
// {
//     type            coded;
//     active          yes;
//     name	        reactionSourceCOIW;
//     selectionMode   all;

//     // field 		        CO;
//     // field 		        ethylene;
//     field 		        prod;

//     codeInclude
//     #{
//         #include "fvCFD.H"
//     #};

//     codeAddRhoSup
//     #{        
//         #include "../../constant/rnTerms/loadCommonData.H"      
        
//         word currSpName("prod");
        
//         #include "../../constant/rnTerms/r_powerLawV3.H"                 
//     #};
// }


// enthalpySourceINWALL
// {
//     type            coded;	
//     active          yes;
//     name	        enthalpySourceINWALL;
//     selectionMode   all;

//     field 		        "T";
    
//     codeInclude
//     #{
//         #include "fvCFD.H"
//     #};

//     codeAddRhoSup
//     #{            
//         #include "../../constant/rnTerms/loadCommonData.H"     
                    
//         #include "../../constant/rnTerms/compEnthV2.H"                 
    // #};
// }