/*--------------------------------*- C++ -*----------------------------------*\
  =========                 |
  \\      /  F ield         | OpenFOAM: The Open Source CFD Toolbox
   \\    /   O peration     | Website:  https://openfoam.org
    \\  /    A nd           | Version:  10
     \\/     M anipulation  |
\*---------------------------------------------------------------------------*/
FoamFile
{
    format      ascii;
    class       dictionary;
    object      blockMeshDict;
}

// * * * * * * * * * * * * * * * * * * * * * * * * * * * * * * * * * * * * * //

convertToMeters 1;

vertices
(
    (-5e-4 0e-2 -2e-2)
    (5e-4 0e-2  -2e-2)
    (5e-4  2e-2  -2e-2)
    (-5e-4  2e-2 -2e-2)
    (-5e-4 0e-2 3e-2)
    (5e-4 0e-2 3e-2)
    (5e-4  2e-2 3e-2)
    (-5e-4  2e-2 3e-2)
);

blocks
(
   // hex (0 1 2 3 4 5 6 7) (1 20 50) simpleGrading (1 1 1)
   // hex (0 1 2 3 4 5 6 7) (1 80 200) simpleGrading (1 1 1)
    hex (0 1 2 3 4 5 6 7) (1 40 100) simpleGrading (1 1 1)
);

boundary
(	
	// -- sides of the geometry
    sides
    {
        type patch;
        faces
        (
            (3 7 6 2)
        );
    }
    sym
    {
        type symmetry;
        faces
        (
            (1 5 4 0)
        );
    }
    frontAndBack
    {
        type empty;
        faces
        (
            (0 4 7 3)
            (2 6 5 1)
        );
    }
	// -- inlet into geometry
    inlet
    {
        type patch;
        faces
        (
			(0 3 2 1)
            
        );
    }
	// -- outlet from geometry
    outlet
    {
        type patch;
        faces
        (
			(4 5 6 7)
        );
    }
);

// ************************************************************************* //
