/*--------------------------------*- C++ -*----------------------------------*\
  =========                 |
  \\      /  F ield         | OpenFOAM: The Open Source CFD Toolbox
   \\    /   O peration     | Website:  https://openfoam.org
    \\  /    A nd           | Version:  10
     \\/     M anipulation  |
\*---------------------------------------------------------------------------*/
FoamFile
{
    version     1.0;
    format      ascii;
    class       dictionary;
    location    "constant";
    object      transportProperties;
}
// * * * * * * * * * * * * * * * * * * * * * * * * * * * * * * * * * * * * * //

transportModel  Newtonian;

//~ nu	[0 2 -1 0 0 0 0]	0.00004343;

//~ species (CO O2 NO CO2 N2 N2O);
species (CO O2 CO2);
//~ species (NO N2 N2O CO2 CO O2);

CO
{
    // for diffusivity computations
    sigmaV      18.0;                                                   //diffusion volume in m3mol-1
    // molM        28.0e-3;                                                //molar mass in kgmol-1
    molM        28.96e-3;                                                //molar mass in kgmol-1
    sigmaVR     16.2;                                                   //diffusion volume of the reference gas in m3mol-1
    molMR       28.96e-3;                                                //molar mass of the reference gas kgmol-1

    //---
    A           30.87;                                                  // A + B*T + C *T**2 + D*T**3 //molar heat capacity 
    B           -1.285e-2;                                              // A + B*T + C *T**2 + D*T**3 //molar heat capacity 
    C           0.2789e-4;                                              // A + B*T + C *T**2 + D*T**3 //molar heat capacity 
    D           -1.272e-8;                                              // A + B*T + C *T**2 + D*T**3 //molar heat capacity 
    
    
    AVR         30.4919840;                                                  // A + B*T + C *T**2 + D*T**3 //molar heat capacity of reference gas
    BVR         0.0;                                              // A + B*T + C *T**2 + D*T**3 //molar heat capacity of reference gas
    CVR         0.0;                                              // A + B*T + C *T**2 + D*T**3 //molar heat capacity of reference gas
    DVR         0.0;                                              // A + B*T + C *T**2 + D*T**3 //molar heat capacity of reference gas
//    BVR         -1.357e-2;                                              // A + B*T + C *T**2 + D*T**3 //molar heat capacity of reference gas
//    CVR         0.2680e-4;                                              // A + B*T + C *T**2 + D*T**3 //molar heat capacity of reference gas
//    DVR         -1.168e-8;                                              // A + B*T + C *T**2 + D*T**3 //molar heat capacity of reference gas
    
    //---
    minForGrad  1e-36;
    nuVec       (-1.0);                                                 //row of the stoechiometric matrix
    alphaVec    (1.0);                                                  //powers in different reactions kinetics
}

O2
{
    // for diffusivity computations
    sigmaV      16.3;                                                   //diffusion volume in m3mol-1
    // molM        32.0e-3;                                                //molar mass in kgmol-1
    molM        28.96e-3;                                                //molar mass in kgmol-1
    sigmaVR     16.2;                                                   //diffusion volume of the reference gas in m3mol-1
    molMR       28.0e-3;                                                //molar mass of the reference gas kgmol-1
    
    //---
    A           28.11;                                                  // A + B*T + C *T**2 + D*T**3 //molar heat capacity 
    B           -0.368e-2;                                              // A + B*T + C *T**2 + D*T**3 //molar heat capacity 
    C           0.1746e-4;                                              // A + B*T + C *T**2 + D*T**3 //molar heat capacity 
    D           -1.065e-8;                                              // A + B*T + C *T**2 + D*T**3 //molar heat capacity 
    
    
    AVR         31.15;                                                  // A + B*T + C *T**2 + D*T**3 //molar heat capacity of reference gas
    BVR         -1.357e-2;                                              // A + B*T + C *T**2 + D*T**3 //molar heat capacity of reference gas
    CVR         0.2680e-4;                                              // A + B*T + C *T**2 + D*T**3 //molar heat capacity of reference gas
    DVR         -1.168e-8;                                              // A + B*T + C *T**2 + D*T**3 //molar heat capacity of reference gas
    //---
    minForGrad  1e-36;
    nuVec       (-0.5);                                                 //row of the stoechiometric matrix
    alphaVec    (1.0);                                                  //powers in different reactions kinetics
}

CO2
{
    // for diffusivity computations
    sigmaV      16.3;                                                   //diffusion volume in m3mol-1
    // molM        32.0e-3;                                                //molar mass in kgmol-1
    molM        28.96e-3;                                                //molar mass in kgmol-1
    sigmaVR     16.2;                                                   //diffusion volume of the reference gas in m3mol-1
    molMR       28.0e-3;                                                //molar mass of the reference gas kgmol-1
    
    //---
    A           19.08;                                                  // A + B*T + C *T**2 + D*T**3 //molar heat capacity 
    B           7.344e-2;                                               // A + B*T + C *T**2 + D*T**3 //molar heat capacity 
    C           -0.5602e-4;                                             // A + B*T + C *T**2 + D*T**3 //molar heat capacity 
    D           1.715e-8;                                               // A + B*T + C *T**2 + D*T**3 //molar heat capacity 
    
    
    AVR         31.15;                                                  // A + B*T + C *T**2 + D*T**3 //molar heat capacity of reference gas
    BVR         -1.357e-2;                                              // A + B*T + C *T**2 + D*T**3 //molar heat capacity of reference gas
    CVR         0.2680e-4;                                              // A + B*T + C *T**2 + D*T**3 //molar heat capacity of reference gas
    DVR         -1.168e-8;                                              // A + B*T + C *T**2 + D*T**3 //molar heat capacity of reference gas
    //---
    minForGrad  1e-36;
    nuVec       (1.0);                                                  //row of the stoechiometric matrix
    //note I dont solve for CO2 concentration
    //entry only for molar heat capacity entry for reaction
    alphaVec    (0.0);                                                  //powers in different reactions kinetics
}



isOnWallCoat
{//field with the location of the coating - 1 -> coating - 0 -> free
    type        field;
}
isInWallCoat
{//field with the location of the coating - 1 -> coating - 0 -> free
    type        field;
}

coatingProps    
{
    porEps  porEps  [0 0 0 0 0 0 0] 0.3;                                //coating porosity
    constr  constr  [0 0 0 0 0 0 0] 1.0;                                //constrictivity   //for elimination set to 1.0
    tort    tort    [0 0 0 0 0 0 0] 4.0;                               //tortuosity
    dP	dP	[0 1 0 0 0 0 0] 1.0e-6;										//Mean pore size of on-wall catalytic coating (m) -- XPF
    kappaT  kappaT  [1 1 -3 -1 0 0 0] 1.0;                              //thermal conductivity of coating in Wm-1K-1
    Cp      Cp      [0 2 -2 -1 0 0 0] 962;                            //specific heat of the substrate in Jkg-1K-1
    rho     rho     [1 -3 0 0 0 0 0] 1000.0;                            //efective density in kgm-3 (assumed constant)
}

substrateProps
{
    porEps  porEps  [0 0 0 0 0 0 0] 0.42;
    constr  constr  [0 0 0 0 0 0 0] 1.0;                                //constrictivity   //for elimination set to 1.0
    tort    tort    [0 0 0 0 0 0 0] 3.0;                                //tortuosity
    dP	dP	[0 1 0 0 0 0 0] 1.91e-5;									//Mean pore size of on-wall catalytic coating (m) -- XPF
    kappaT  kappaT  [1 1 -3 -1 0 0 0] 1.75;                              //thermal conductivity of substrate Wm-1K-1
    Cp      Cp      [0 2 -2 -1 0 0 0] 800;                            //specific heat of the substrate Jkg-1K-1
    rho     rho     [1 -3 0 0 0 0 0] 2030.0;                            //efective density in kgm-3 (assumed constant)
}

inWallProperties
{
    //~ coatingVolFrac 0.31;                                                //CF1
    //~ coatingVolFrac 0.209;                                                //CF2
    coatingVolFrac 0.0;                                                //CF3
}

onWallProperties
{
    //~ coatingVolFrac 0.00;												//CF1
    //~ coatingVolFrac 0.9;												//CF2
    coatingVolFrac 0.99;												//CF3	
}

nIterations
{
    temp 17;												//CF3	
    conc 2;												//CF3	
}

// Deff = D*porEps*constr/tort - estimate for the effective diffusivity in coating
// Deff - random pore model N. Wakao, J.M. Smith, Chemical Engineering Science, 17 (1962)
// D - N. Wakao, J.M. Smith, Chemical Engineering Science, 17 (1962)

reactProps
{//reaction specific properties   // data from M.Dudák et al., Applied Catalysis B:Environmental (2014)
    activeReacts    (1 1 1 1);                                          //switch reactions on/off
    
    //inhibition react
    reaction00{
        k0    k0      [0 -3 -1 0 1 0 0]       20.6e18;
        sHr    sHr 	[1 2 -2 0 -1 0 0]   -283e3;	
        EA	EA	[1  2 -2 0 -1 0 0]      90000.0;
        kin	kin	[0 0 0 0 0 0 0]		800;
        Ein	Ein	[0 0 0 1 0 0 0]		1041;
        nuReact (-1 -0.5 1);
    }
    
    //~ reaction00
    //~ {//C0 + 0.5O2 -> CO2, kinetics r1 = k*CO^a1*O2^b1
        //~ // Note: check the units in k0
        //~ k0      k0      [0  3  -1  0  -1 0 0]   2.00e13;
       // k0      k0      [0  6  -1  0  -2 0 0]   1.00e13;				//z XPF
        //~ // k0      k0      [0  0  -1  0  0 0 0]   2.00e13;
        //~ EA      EA      [1  2 -2 0 -1 0 0]      90e3;
        //~ // Note: there is no activation, nor inhibition, just this simple thing
    //~ }
    //~ reaction01
    //~ {//CO + NO -> CO2 + 0.5N2, kinetics r2 = k*CO^a2*NO^b2
        //~ // Note: check the units in k0
        //~ k0      k0      [0  3  -1  0  -1 0 0]   1.00e10;
       // k0      k0      [0 6  -1  0  -2 0 0]  4.89e08;
        //~ // k0      k0      [0  0  -1  0  0 0 0]   1.00e10;
        //~ EA      EA      [1  2 -2 0 -1 0 0]      62.57e3;
        //~ // Note: there is no activation, nor inhibition, just this simple thing
    //~ }
    //~ reaction02
    //~ {//0.5CO + NO -> CO2 + N2O, kinetics r3 = k*CO^a3*NO^b3
        //~ // Note: check the units in k0
        //~ k0      k0      [0  3  -1  0  -1 0 0]   1.0e7;
        //k0      k0      [0  6  -1  0  -2 0 0]    2.07e06;
        //~ // k0      k0      [0  0  -1  0  0 0 0]   1.0e7;
        //~ EA      EA      [1  2 -2 0 -1 0 0]      39.84e3;
        //~ // Note: there is no activation, nor inhibition, just this simple thing
    //~ }
    //~ reaction03
    //~ {//N2O -> N2 + 0.5O2, kinetics r4 = k*N2O^a4
        //~ // Note: check the units in k0!!!!
        //~ k0      k0      [0  0  -1  0  0 0 0]   2.00e15;
       // k0      k0      [0  3  -1  0  -1 0 0]  2.14e15;
        //~ // k0      k0      [0  0  -1  0  0 0 0]   2.00e15;
        //~ EA      EA      [1  2 -2 0 -1 0 0]      162.60e3;
        //~ // Note: there is no activation, nor inhibition, just this simple thing
    //~ }
    numProps
    {
        clipGradMin     -1e10;
        clipGradMax     1e10;
    }
}

genProps
{// general properties (the same for all the reactions and species)
    univR   univR   [1  2 -2 -1 -1 0 0]  8.31446261815324;
    pAtm    pAtm    [1 -1 -2  0  0 0 0]  101325;                        //Pa
    Cp	    Cp 	    [0  2  -2   -1  0 0 0]  1052.91;
    // kappa  kappa  [1 1 -3 -1 0 0 0] 0.066;                              //thermal conductivity of substrate Wm-1K-1
    kappaA  kappaA  [1 1 -3 -1 0 0 0] 0.3918e-3;                              //thermal conductivity of substrate Wm-1K-1
    kappaB  kappaB  [1 1 -3 -2 0 0 0] 0.9814e-4;                              //thermal conductivity of substrate Wm-1K-1
    kappaC  kappaC  [1 1 -3 -3 0 0 0] -5.0660e-8;                              //thermal conductivity of substrate Wm-1K-1
    kappaD  kappaD  [1 1 -3 -4 0 0 0] 1.503479e-11;                              //thermal conductivity of substrate Wm-1K-1
    // kappa  kappa  [1 1 -3 -1 0 0 0] 0.03;                              //thermal conductivity of substrate Wm-1K-1
    //Note: this is edited from caseRuner.py
	cTemp	cTemp	[0 0 0 1 0 0 0]	600.00;
}


// ************************************************************************* //
