/*--------------------------------*- C++ -*----------------------------------*\
| =========                 |                                                 |
| \\      /  F ield         | OpenFOAM: The Open Source CFD Toolbox           |
|  \\    /   O peration     | Version:  4.1                                   |
|   \\  /    A nd           | Web:      www.OpenFOAM.org                      |
|    \\/     M anipulation  |                                                 |
\*---------------------------------------------------------------------------*/
FoamFile
{
    version     2.0;
    format      ascii;
    class       dictionary;
    location    "system";
    object      controlDict;
}
// * * * * * * * * * * * * * * * * * * * * * * * * * * * * * * * * * * * * * //

//application     flowDCRcoupleNew;
// application     nonIsoFlowDCR;
// application     reactingHetCatSimpleFoamPMT;
// application     reactingHetCatPimpleFoamFC;
// application     reactingHetCatSimpleFoamFC;
application     reactingHetCatPimpleFoamFC;
// application     rhoPorousSimpleFoam;

startFrom       latestTime;

startTime 	500;

stopAt          endTime;
//stopAt          writeNow;

endTime	2000;

deltaT          1e-7;

writeControl    adjustableRunTime;

writeInterval 	0.001;

purgeWrite      0;

writeFormat     ascii;

writePrecision  8;

writeCompression off;

timeFormat      general;

timePrecision   6;

runTimeModifiable true;

adjustTimeStep  yes;

maxCo          0.5;


// ************************************************************************* //

functions
{
      #include "residuals"
}
