/*--------------------------------*- C++ -*----------------------------------*\
  =========                 |
  \\      /  F ield         | OpenFOAM: The Open Source CFD Toolbox
   \\    /   O peration     | Website:  https://openfoam.org
    \\  /    A nd           | Version:  10
     \\/     M anipulation  |
\*---------------------------------------------------------------------------*/
FoamFile
{
    version     1.0;
    format      ascii;
    class       dictionary;
    location    "constant";
    object      fvModels;
}

reactionSourceEthyleneMassIW
{
    type            coded;
    active          yes;
    name	        reactionSourceEthyleneMassIW;
    selectionMode   all;

    field 		        ethyleneMass;

    codeInclude
    #{
        #include "fvCFD.H"
    #};

    codeAddRhoSup
    #{        
        #include "../../constant/rnTerms/loadCommonData.H"      
        
        word currSpName("ethylene");
        
        #include "../../constant/rnTerms/r_powerLawV3.H"                 
    #};
}

reactionSourceO2IW
{
    type            coded;
    active          yes;
    name	        reactionSourceO2IW;
    selectionMode   all;

    field 		        O2Mass;

    codeInclude
    #{
        #include "fvCFD.H"
    #};

    codeAddRhoSup
    #{            
        #include "../../constant/rnTerms/loadCommonData.H"      
        
        word currSpName("O2");
        
        #include "../../constant/rnTerms/r_powerLawV3.H"                 
    #};
}

reactionSourceHClIW
{
    type            coded;
    active          yes;
    name	        reactionSourceHClIW;
    selectionMode   all;

    field 		        HClMass;

    codeInclude
    #{
        #include "fvCFD.H"
    #};

    codeAddRhoSup
    #{            
        #include "../../constant/rnTerms/loadCommonData.H"      
        
        word currSpName("HCl");
        
        #include "../../constant/rnTerms/r_powerLawV3.H"                 
    #};
}

reactionSourceC2H4ClMassIW
{
    type            coded;
    active          yes;
    name	        reactionSourceC2H4ClMassIW;
    selectionMode   all;

    field 		        C2H4ClMass;

    codeInclude
    #{
        #include "fvCFD.H"
    #};

    codeAddRhoSup
    #{        
        #include "../../constant/rnTerms/loadCommonData.H"      
        
        word currSpName("C2H4Cl");
        
        #include "../../constant/rnTerms/r_powerLawV3.H"                 
    #};
}

reactionSourceH2OMassIW
{
    type            coded;
    active          yes;
    name	        reactionSourceH2OMassIW;
    selectionMode   all;

    field 		        H2OMass;

    codeInclude
    #{
        #include "fvCFD.H"
    #};

    codeAddRhoSup
    #{        
        #include "../../constant/rnTerms/loadCommonData.H"      
        
        word currSpName("H2O");
        
        #include "../../constant/rnTerms/r_powerLawV3.H"                 
    #};
}



enthalpySourceINWALL
{
    type            coded;	
    active          yes;
    name	        enthalpySourceINWALL;
    selectionMode   all;

    field 		        "T";
    
    codeInclude
    #{
        #include "fvCFD.H"
    #};

    codeAddRhoSup
    #{            
        #include "../../constant/rnTerms/loadCommonData.H"     
                    
        #include "../../constant/rnTerms/compEnthV2.H"                 
    #};
}