/*--------------------------------*- C++ -*----------------------------------*\
| =========                 |                                                 |
| \\      /  F ield         | OpenFOAM: The Open Source CFD Toolbox           |
|  \\    /   O peration     | Version:  2.3.0                                 |
|   \\  /    A nd           | Web:      www.OpenFOAM.org                      |
|    \\/     M anipulation  |                                                 |
\*---------------------------------------------------------------------------*/
FoamFile
{
    version     2.0;
    format      ascii;
    class       volScalarField;
    location    "0";
    object      p;
}
// * * * * * * * * * * * * * * * * * * * * * * * * * * * * * * * * * * * * * //

dimensions      [1 -1 -2 0 0 0 0];

internalField   uniform 101325;

boundaryField
{
    inlet
    {
        type            zeroGradient;
    }
    outlet
    {
        type            totalPressure;
//        rho             rho;
        p0              uniform 101325;
        value           uniform 101325;
    
        // Optional entries
        U               U;
        phi             phi;
    }
    "(walls|inletCyl|cylinder)"
    {
        type            zeroGradient;
    }
    
    "(symmetry).*"
    {
        type            symmetryPlane;
    }

    
    defaultFaces
    {
        type            empty;
    }
}

// ************************************************************************* //
