/*--------------------------------*- C++ -*----------------------------------*\
| =========                 |                                                 |
| \\      /  F ield         | OpenFOAM: The Open Source CFD Toolbox           |
|  \\    /   O peration     | Version:  4.0                                   |
|   \\  /    A nd           | Web:      www.OpenFOAM.org                      |
|    \\/     M anipulation  |                                                 |
\*---------------------------------------------------------------------------*/
FoamFile
{
    version     2.0;
    format      ascii;
    class       volScalarField;
    object      CO;
}
// * * * * * * * * * * * * * * * * * * * * * * * * * * * * * * * * * * * * * //

dimensions      [0 0 0 0 0 0 0];

internalField   uniform 0.5;

boundaryField
{
    inlet
    {
        type            fixedValue;
        value           uniform 0.5;
    }
    frontAndBack
    {
        type            empty;
    }
    "(sphere|sphere2|cyl)"
    {
        type            zeroGradient;
    }

    "(outlet|sides)"
    {
        // type        zeroGradient;
        type            fixedValue;
        value           uniform 0.35;
        // value           uniform 0.1;
        // type uniformFixedValue;
        // uniformValue table
        // (
        //     (0 0.5)
        //     (1000 0.45)
        // )
    }
    "sym"
    {
        type        symmetry;
    }
}

// ************************************************************************* //
