/*--------------------------------*- C++ -*----------------------------------*\
  =========                 |
  \\      /  F ield         | OpenFOAM: The Open Source CFD Toolbox
   \\    /   O peration     | Website:  https://openfoam.org
    \\  /    A nd           | Version:  10
     \\/     M anipulation  |
\*---------------------------------------------------------------------------*/
FoamFile
{
    version     1.0;
    format      ascii;
    class       volScalarField;
    location    "0";
    object      T;
}
// * * * * * * * * * * * * * * * * * * * * * * * * * * * * * * * * * * * * * //

dimensions      [0 0 0 1 0 0 0];

// internalField   uniform isoT;
internalField   uniform initT; 

boundaryField
{
    infinity
    {
        type            fixedValue;
        // value           uniform isoT;
        value           uniform boundT;
    }
    sphere
    {
        type            fixedValue;
        // value           uniform isoT;
        value           uniform boundT;
    }
}
