/*--------------------------------*- C++ -*----------------------------------*\
  =========                 |
  \\      /  F ield         | OpenFOAM: The Open Source CFD Toolbox
   \\    /   O peration     | Website:  https://openfoam.org
    \\  /    A nd           | Version:  10
     \\/     M anipulation  |
\*---------------------------------------------------------------------------*/
FoamFile
{
    format      ascii;
    class       polyBoundaryMesh;
    location    "constant/polyMesh";
    object      boundary;
}
// * * * * * * * * * * * * * * * * * * * * * * * * * * * * * * * * * * * * * //

3
(
    inlet
    {
        type            patch;
        nFaces          225;
        startFace       148125;
    }
    outlet
    {
        type            patch;
        nFaces          225;
        startFace       148350;
    }
    cylinder
    {
        type            patch;
        nFaces          13800;
        startFace       148575;
    }
)

// ************************************************************************* //
