/*--------------------------------*- C++ -*----------------------------------*\
  =========                 |
  \\      /  F ield         | OpenFOAM: The Open Source CFD Toolbox
   \\    /   O peration     | Website:  https://openfoam.org
    \\  /    A nd           | Version:  10
     \\/     M anipulation  |
\*---------------------------------------------------------------------------*/
FoamFile
{
    version     2.0;
    format      ascii;
    class       dictionary;
    location    "system";
    object      fvSchemes;
}
// * * * * * * * * * * * * * * * * * * * * * * * * * * * * * * * * * * * * * //


ddtSchemes
{
    default                             steadyState;
}

gradSchemes
{
    default                             Gauss linear;
    // grad(U)                             cellLimited Gauss linear 0.5;
}

divSchemes
{
    default                             bounded Gauss SFCD;
    div(phi,U)                          bounded Gauss linearUpwind grad(U);
    div(((rho*nuEff)*dev2(T(grad(U))))) Gauss linear;
}

laplacianSchemes
{
   default                             Gauss linear corrected 0.5;
}

interpolationSchemes
{
    default                             linear;
}

snGradSchemes
{
    default                             corrected 0.5;
}

fluxRequired
{
    default         no;
    p;
}

wallDist
{
    method          meshWave;
    correctWalls    true;
}

// ************************************************************************* //
