/*--------------------------------*- C++ -*----------------------------------*\ 
  =========                 |                                                   
  \\      /  F ield         | OpenFOAM: The Open Source CFD Toolbox             
   \\    /   O peration     | Website:  https://openfoam.org                    
    \\  /    A nd           | Version:  10                                      
     \\/     M anipulation  |                                                   
\*---------------------------------------------------------------------------*/ 
FoamFile 
{ 
 	 version 	 1.0; 
 	 format 	 ascii; 
 	 class 		 dictionary; 
 	 object 	 blockMeshDict; 
} 
// * * * * * * * * * * * * * * * * * * * * * * * * * * * * * * * * * * * * * // 

convertToMeters 	1; 

vertices 
( 
	 (0.0 0.0 0.0)	// 000
	 (3e-05 0.0 0.0)	// 001
	 (3e-05 0.000524 0.0)	// 002
	 (0.0 0.000524 0.0)	// 003
	 (0.0 0.0 0.005)	// 004
	 (3e-05 0.0 0.005)	// 005
	 (3e-05 0.000524 0.005)	// 006
	 (0.0 0.000524 0.005)	// 007
	 (0.0 0.000524 0.0)	// 008
	 (3e-05 0.000524 0.0)	// 009
	 (3e-05 0.000565 0.0)	// 010
	 (0.0 0.000565 0.0)	// 011
	 (0.0 0.000524 0.005)	// 012
	 (3e-05 0.000524 0.005)	// 013
	 (3e-05 0.000565 0.005)	// 014
	 (0.0 0.000565 0.005)	// 015
	 (0.0 0.000565 0.0)	// 016
	 (3e-05 0.000565 0.0)	// 017
	 (3e-05 0.000702 0.0)	// 018
	 (0.0 0.000702 0.0)	// 019
	 (0.0 0.000565 0.005)	// 020
	 (3e-05 0.000565 0.005)	// 021
	 (3e-05 0.000702 0.005)	// 022
	 (0.0 0.000702 0.005)	// 023
	 (0.0 0.000702 0.0)	// 024
	 (3e-05 0.000702 0.0)	// 025
	 (3e-05 0.000743 0.0)	// 026
	 (0.0 0.000743 0.0)	// 027
	 (0.0 0.000702 0.005)	// 028
	 (3e-05 0.000702 0.005)	// 029
	 (3e-05 0.000743 0.005)	// 030
	 (0.0 0.000743 0.005)	// 031
	 (0.0 0.000743 0.0)	// 032
	 (3e-05 0.000743 0.0)	// 033
	 (3e-05 0.001267 0.0)	// 034
	 (0.0 0.001267 0.0)	// 035
	 (0.0 0.000743 0.005)	// 036
	 (3e-05 0.000743 0.005)	// 037
	 (3e-05 0.001267 0.005)	// 038
	 (0.0 0.001267 0.005)	// 039
	 (0.0 0.001267 0.0)	// 040
	 (3e-05 0.001267 0.0)	// 041
	 (3e-05 0.001791 0.0)	// 042
	 (0.0 0.001791 0.0)	// 043
	 (0.0 0.001267 0.005)	// 044
	 (3e-05 0.001267 0.005)	// 045
	 (3e-05 0.001791 0.005)	// 046
	 (0.0 0.001791 0.005)	// 047
	 (0.0 0.001791 0.0)	// 048
	 (3e-05 0.001791 0.0)	// 049
	 (3e-05 0.001832 0.0)	// 050
	 (0.0 0.001832 0.0)	// 051
	 (0.0 0.001791 0.005)	// 052
	 (3e-05 0.001791 0.005)	// 053
	 (3e-05 0.001832 0.005)	// 054
	 (0.0 0.001832 0.005)	// 055
	 (0.0 0.001832 0.0)	// 056
	 (3e-05 0.001832 0.0)	// 057
	 (3e-05 0.001969 0.0)	// 058
	 (0.0 0.001969 0.0)	// 059
	 (0.0 0.001832 0.005)	// 060
	 (3e-05 0.001832 0.005)	// 061
	 (3e-05 0.001969 0.005)	// 062
	 (0.0 0.001969 0.005)	// 063
	 (0.0 0.001969 0.0)	// 064
	 (3e-05 0.001969 0.0)	// 065
	 (3e-05 0.00201 0.0)	// 066
	 (0.0 0.00201 0.0)	// 067
	 (0.0 0.001969 0.005)	// 068
	 (3e-05 0.001969 0.005)	// 069
	 (3e-05 0.00201 0.005)	// 070
	 (0.0 0.00201 0.005)	// 071
	 (0.0 0.00201 0.0)	// 072
	 (3e-05 0.00201 0.0)	// 073
	 (3e-05 0.002534 0.0)	// 074
	 (0.0 0.002534 0.0)	// 075
	 (0.0 0.00201 0.005)	// 076
	 (3e-05 0.00201 0.005)	// 077
	 (3e-05 0.002534 0.005)	// 078
	 (0.0 0.002534 0.005)	// 079
	 (0.0 0.000524 0.005)	// 080
	 (3e-05 0.000524 0.005)	// 081
	 (3e-05 0.000565 0.005)	// 082
	 (0.0 0.000565 0.005)	// 083
	 (0.0 0.000524 0.006)	// 084
	 (3e-05 0.000524 0.006)	// 085
	 (3e-05 0.000565 0.006)	// 086
	 (0.0 0.000565 0.006)	// 087
	 (0.0 0.000565 0.005)	// 088
	 (3e-05 0.000565 0.005)	// 089
	 (3e-05 0.000702 0.005)	// 090
	 (0.0 0.000702 0.005)	// 091
	 (0.0 0.000565 0.006)	// 092
	 (3e-05 0.000565 0.006)	// 093
	 (3e-05 0.000702 0.006)	// 094
	 (0.0 0.000702 0.006)	// 095
	 (0.0 0.000702 0.005)	// 096
	 (3e-05 0.000702 0.005)	// 097
	 (3e-05 0.000743 0.005)	// 098
	 (0.0 0.000743 0.005)	// 099
	 (0.0 0.000702 0.006)	// 100
	 (3e-05 0.000702 0.006)	// 101
	 (3e-05 0.000743 0.006)	// 102
	 (0.0 0.000743 0.006)	// 103
	 (0.0 0.000743 0.005)	// 104
	 (3e-05 0.000743 0.005)	// 105
	 (3e-05 0.001267 0.005)	// 106
	 (0.0 0.001267 0.005)	// 107
	 (0.0 0.000743 0.006)	// 108
	 (3e-05 0.000743 0.006)	// 109
	 (3e-05 0.001267 0.006)	// 110
	 (0.0 0.001267 0.006)	// 111
	 (0.0 0.001267 0.005)	// 112
	 (3e-05 0.001267 0.005)	// 113
	 (3e-05 0.001791 0.005)	// 114
	 (0.0 0.001791 0.005)	// 115
	 (0.0 0.001267 0.006)	// 116
	 (3e-05 0.001267 0.006)	// 117
	 (3e-05 0.001791 0.006)	// 118
	 (0.0 0.001791 0.006)	// 119
	 (0.0 0.001791 0.005)	// 120
	 (3e-05 0.001791 0.005)	// 121
	 (3e-05 0.001832 0.005)	// 122
	 (0.0 0.001832 0.005)	// 123
	 (0.0 0.001791 0.006)	// 124
	 (3e-05 0.001791 0.006)	// 125
	 (3e-05 0.001832 0.006)	// 126
	 (0.0 0.001832 0.006)	// 127
	 (0.0 0.001832 0.005)	// 128
	 (3e-05 0.001832 0.005)	// 129
	 (3e-05 0.001969 0.005)	// 130
	 (0.0 0.001969 0.005)	// 131
	 (0.0 0.001832 0.006)	// 132
	 (3e-05 0.001832 0.006)	// 133
	 (3e-05 0.001969 0.006)	// 134
	 (0.0 0.001969 0.006)	// 135
	 (0.0 0.001969 0.005)	// 136
	 (3e-05 0.001969 0.005)	// 137
	 (3e-05 0.00201 0.005)	// 138
	 (0.0 0.00201 0.005)	// 139
	 (0.0 0.001969 0.006)	// 140
	 (3e-05 0.001969 0.006)	// 141
	 (3e-05 0.00201 0.006)	// 142
	 (0.0 0.00201 0.006)	// 143
	 (0.0 0.0 0.006)	// 144
	 (3e-05 0.0 0.006)	// 145
	 (3e-05 0.000524 0.006)	// 146
	 (0.0 0.000524 0.006)	// 147
	 (0.0 0.0 0.024)	// 148
	 (3e-05 0.0 0.024)	// 149
	 (3e-05 0.000524 0.024)	// 150
	 (0.0 0.000524 0.024)	// 151
	 (0.0 0.000524 0.006)	// 152
	 (3e-05 0.000524 0.006)	// 153
	 (3e-05 0.000565 0.006)	// 154
	 (0.0 0.000565 0.006)	// 155
	 (0.0 0.000524 0.024)	// 156
	 (3e-05 0.000524 0.024)	// 157
	 (3e-05 0.000565 0.024)	// 158
	 (0.0 0.000565 0.024)	// 159
	 (0.0 0.000565 0.006)	// 160
	 (3e-05 0.000565 0.006)	// 161
	 (3e-05 0.000702 0.006)	// 162
	 (0.0 0.000702 0.006)	// 163
	 (0.0 0.000565 0.024)	// 164
	 (3e-05 0.000565 0.024)	// 165
	 (3e-05 0.000702 0.024)	// 166
	 (0.0 0.000702 0.024)	// 167
	 (0.0 0.000702 0.006)	// 168
	 (3e-05 0.000702 0.006)	// 169
	 (3e-05 0.000743 0.006)	// 170
	 (0.0 0.000743 0.006)	// 171
	 (0.0 0.000702 0.024)	// 172
	 (3e-05 0.000702 0.024)	// 173
	 (3e-05 0.000743 0.024)	// 174
	 (0.0 0.000743 0.024)	// 175
	 (0.0 0.000743 0.006)	// 176
	 (3e-05 0.000743 0.006)	// 177
	 (3e-05 0.001267 0.006)	// 178
	 (0.0 0.001267 0.006)	// 179
	 (0.0 0.000743 0.024)	// 180
	 (3e-05 0.000743 0.024)	// 181
	 (3e-05 0.001267 0.024)	// 182
	 (0.0 0.001267 0.024)	// 183
	 (0.0 0.001267 0.006)	// 184
	 (3e-05 0.001267 0.006)	// 185
	 (3e-05 0.001791 0.006)	// 186
	 (0.0 0.001791 0.006)	// 187
	 (0.0 0.001267 0.024)	// 188
	 (3e-05 0.001267 0.024)	// 189
	 (3e-05 0.001791 0.024)	// 190
	 (0.0 0.001791 0.024)	// 191
	 (0.0 0.001791 0.006)	// 192
	 (3e-05 0.001791 0.006)	// 193
	 (3e-05 0.001832 0.006)	// 194
	 (0.0 0.001832 0.006)	// 195
	 (0.0 0.001791 0.024)	// 196
	 (3e-05 0.001791 0.024)	// 197
	 (3e-05 0.001832 0.024)	// 198
	 (0.0 0.001832 0.024)	// 199
	 (0.0 0.001832 0.006)	// 200
	 (3e-05 0.001832 0.006)	// 201
	 (3e-05 0.001969 0.006)	// 202
	 (0.0 0.001969 0.006)	// 203
	 (0.0 0.001832 0.024)	// 204
	 (3e-05 0.001832 0.024)	// 205
	 (3e-05 0.001969 0.024)	// 206
	 (0.0 0.001969 0.024)	// 207
	 (0.0 0.001969 0.006)	// 208
	 (3e-05 0.001969 0.006)	// 209
	 (3e-05 0.00201 0.006)	// 210
	 (0.0 0.00201 0.006)	// 211
	 (0.0 0.001969 0.024)	// 212
	 (3e-05 0.001969 0.024)	// 213
	 (3e-05 0.00201 0.024)	// 214
	 (0.0 0.00201 0.024)	// 215
	 (0.0 0.00201 0.006)	// 216
	 (3e-05 0.00201 0.006)	// 217
	 (3e-05 0.002534 0.006)	// 218
	 (0.0 0.002534 0.006)	// 219
	 (0.0 0.00201 0.024)	// 220
	 (3e-05 0.00201 0.024)	// 221
	 (3e-05 0.002534 0.024)	// 222
	 (0.0 0.002534 0.024)	// 223
	 (0.0 0.0 0.024)	// 224
	 (3e-05 0.0 0.024)	// 225
	 (3e-05 0.000524 0.024)	// 226
	 (0.0 0.000524 0.024)	// 227
	 (0.0 0.0 0.025)	// 228
	 (3e-05 0.0 0.025)	// 229
	 (3e-05 0.000524 0.025)	// 230
	 (0.0 0.000524 0.025)	// 231
	 (0.0 0.000524 0.024)	// 232
	 (3e-05 0.000524 0.024)	// 233
	 (3e-05 0.000565 0.024)	// 234
	 (0.0 0.000565 0.024)	// 235
	 (0.0 0.000524 0.025)	// 236
	 (3e-05 0.000524 0.025)	// 237
	 (3e-05 0.000565 0.025)	// 238
	 (0.0 0.000565 0.025)	// 239
	 (0.0 0.000565 0.024)	// 240
	 (3e-05 0.000565 0.024)	// 241
	 (3e-05 0.000702 0.024)	// 242
	 (0.0 0.000702 0.024)	// 243
	 (0.0 0.000565 0.025)	// 244
	 (3e-05 0.000565 0.025)	// 245
	 (3e-05 0.000702 0.025)	// 246
	 (0.0 0.000702 0.025)	// 247
	 (0.0 0.000702 0.024)	// 248
	 (3e-05 0.000702 0.024)	// 249
	 (3e-05 0.000743 0.024)	// 250
	 (0.0 0.000743 0.024)	// 251
	 (0.0 0.000702 0.025)	// 252
	 (3e-05 0.000702 0.025)	// 253
	 (3e-05 0.000743 0.025)	// 254
	 (0.0 0.000743 0.025)	// 255
	 (0.0 0.001791 0.024)	// 256
	 (3e-05 0.001791 0.024)	// 257
	 (3e-05 0.001832 0.024)	// 258
	 (0.0 0.001832 0.024)	// 259
	 (0.0 0.001791 0.025)	// 260
	 (3e-05 0.001791 0.025)	// 261
	 (3e-05 0.001832 0.025)	// 262
	 (0.0 0.001832 0.025)	// 263
	 (0.0 0.001832 0.024)	// 264
	 (3e-05 0.001832 0.024)	// 265
	 (3e-05 0.001969 0.024)	// 266
	 (0.0 0.001969 0.024)	// 267
	 (0.0 0.001832 0.025)	// 268
	 (3e-05 0.001832 0.025)	// 269
	 (3e-05 0.001969 0.025)	// 270
	 (0.0 0.001969 0.025)	// 271
	 (0.0 0.001969 0.024)	// 272
	 (3e-05 0.001969 0.024)	// 273
	 (3e-05 0.00201 0.024)	// 274
	 (0.0 0.00201 0.024)	// 275
	 (0.0 0.001969 0.025)	// 276
	 (3e-05 0.001969 0.025)	// 277
	 (3e-05 0.00201 0.025)	// 278
	 (0.0 0.00201 0.025)	// 279
	 (0.0 0.00201 0.024)	// 280
	 (3e-05 0.00201 0.024)	// 281
	 (3e-05 0.002534 0.024)	// 282
	 (0.0 0.002534 0.024)	// 283
	 (0.0 0.00201 0.025)	// 284
	 (3e-05 0.00201 0.025)	// 285
	 (3e-05 0.002534 0.025)	// 286
	 (0.0 0.002534 0.025)	// 287
	 (0.0 0.0 0.025)	// 288
	 (3e-05 0.0 0.025)	// 289
	 (3e-05 0.000524 0.025)	// 290
	 (0.0 0.000524 0.025)	// 291
	 (0.0 0.0 0.065)	// 292
	 (3e-05 0.0 0.065)	// 293
	 (3e-05 0.000524 0.065)	// 294
	 (0.0 0.000524 0.065)	// 295
	 (0.0 0.000524 0.025)	// 296
	 (3e-05 0.000524 0.025)	// 297
	 (3e-05 0.000565 0.025)	// 298
	 (0.0 0.000565 0.025)	// 299
	 (0.0 0.000524 0.065)	// 300
	 (3e-05 0.000524 0.065)	// 301
	 (3e-05 0.000565 0.065)	// 302
	 (0.0 0.000565 0.065)	// 303
	 (0.0 0.000565 0.025)	// 304
	 (3e-05 0.000565 0.025)	// 305
	 (3e-05 0.000702 0.025)	// 306
	 (0.0 0.000702 0.025)	// 307
	 (0.0 0.000565 0.065)	// 308
	 (3e-05 0.000565 0.065)	// 309
	 (3e-05 0.000702 0.065)	// 310
	 (0.0 0.000702 0.065)	// 311
	 (0.0 0.000702 0.025)	// 312
	 (3e-05 0.000702 0.025)	// 313
	 (3e-05 0.000743 0.025)	// 314
	 (0.0 0.000743 0.025)	// 315
	 (0.0 0.000702 0.065)	// 316
	 (3e-05 0.000702 0.065)	// 317
	 (3e-05 0.000743 0.065)	// 318
	 (0.0 0.000743 0.065)	// 319
	 (0.0 0.000743 0.025)	// 320
	 (3e-05 0.000743 0.025)	// 321
	 (3e-05 0.001267 0.025)	// 322
	 (0.0 0.001267 0.025)	// 323
	 (0.0 0.000743 0.065)	// 324
	 (3e-05 0.000743 0.065)	// 325
	 (3e-05 0.001267 0.065)	// 326
	 (0.0 0.001267 0.065)	// 327
	 (0.0 0.001267 0.025)	// 328
	 (3e-05 0.001267 0.025)	// 329
	 (3e-05 0.001791 0.025)	// 330
	 (0.0 0.001791 0.025)	// 331
	 (0.0 0.001267 0.065)	// 332
	 (3e-05 0.001267 0.065)	// 333
	 (3e-05 0.001791 0.065)	// 334
	 (0.0 0.001791 0.065)	// 335
	 (0.0 0.001791 0.025)	// 336
	 (3e-05 0.001791 0.025)	// 337
	 (3e-05 0.001832 0.025)	// 338
	 (0.0 0.001832 0.025)	// 339
	 (0.0 0.001791 0.065)	// 340
	 (3e-05 0.001791 0.065)	// 341
	 (3e-05 0.001832 0.065)	// 342
	 (0.0 0.001832 0.065)	// 343
	 (0.0 0.001832 0.025)	// 344
	 (3e-05 0.001832 0.025)	// 345
	 (3e-05 0.001969 0.025)	// 346
	 (0.0 0.001969 0.025)	// 347
	 (0.0 0.001832 0.065)	// 348
	 (3e-05 0.001832 0.065)	// 349
	 (3e-05 0.001969 0.065)	// 350
	 (0.0 0.001969 0.065)	// 351
	 (0.0 0.001969 0.025)	// 352
	 (3e-05 0.001969 0.025)	// 353
	 (3e-05 0.00201 0.025)	// 354
	 (0.0 0.00201 0.025)	// 355
	 (0.0 0.001969 0.065)	// 356
	 (3e-05 0.001969 0.065)	// 357
	 (3e-05 0.00201 0.065)	// 358
	 (0.0 0.00201 0.065)	// 359
	 (0.0 0.00201 0.025)	// 360
	 (3e-05 0.00201 0.025)	// 361
	 (3e-05 0.002534 0.025)	// 362
	 (0.0 0.002534 0.025)	// 363
	 (0.0 0.00201 0.065)	// 364
	 (3e-05 0.00201 0.065)	// 365
	 (3e-05 0.002534 0.065)	// 366
	 (0.0 0.002534 0.065)	// 367
); 

edges 
( 

); 

blocks 
( 
	hex
		(0 1 2 3 4 5 6 7)
		(1 17 166)	simpleGrading 	(1.000000 1.000000 1.000000)

	hex
		(8 9 10 11 12 13 14 15)
		(1 2 166)	simpleGrading 	(1.000000 1.000000 1.000000)

	hex
		(16 17 18 19 20 21 22 23)
		(1 8 166)	simpleGrading 	(1.000000 1.000000 1.000000)

	hex
		(24 25 26 27 28 29 30 31)
		(1 2 166)	simpleGrading 	(1.000000 1.000000 1.000000)

	hex
		(32 33 34 35 36 37 38 39)
		(1 17 166)	simpleGrading 	(1.000000 1.000000 1.000000)

	hex
		(40 41 42 43 44 45 46 47)
		(1 17 166)	simpleGrading 	(1.000000 1.000000 1.000000)

	hex
		(48 49 50 51 52 53 54 55)
		(1 2 166)	simpleGrading 	(1.000000 1.000000 1.000000)

	hex
		(56 57 58 59 60 61 62 63)
		(1 8 166)	simpleGrading 	(1.000000 1.000000 1.000000)

	hex
		(64 65 66 67 68 69 70 71)
		(1 2 166)	simpleGrading 	(1.000000 1.000000 1.000000)

	hex
		(72 73 74 75 76 77 78 79)
		(1 17 166)	simpleGrading 	(1.000000 1.000000 1.000000)

	hex
		(80 81 82 83 84 85 86 87)	coat
		(1 2 33)	simpleGrading 	(1.000000 1.000000 1.000000)

	hex
		(88 89 90 91 92 93 94 95)	wall
		(1 8 33)	simpleGrading 	(1.000000 1.000000 1.000000)

	hex
		(96 97 98 99 100 101 102 103)	coat
		(1 2 33)	simpleGrading 	(1.000000 1.000000 1.000000)

	hex
		(104 105 106 107 108 109 110 111)
		(1 17 33)	simpleGrading 	(1.000000 1.000000 1.000000)

	hex
		(112 113 114 115 116 117 118 119)
		(1 17 33)	simpleGrading 	(1.000000 1.000000 1.000000)

	hex
		(120 121 122 123 124 125 126 127)	coat
		(1 2 33)	simpleGrading 	(1.000000 1.000000 1.000000)

	hex
		(128 129 130 131 132 133 134 135)	wall
		(1 8 33)	simpleGrading 	(1.000000 1.000000 1.000000)

	hex
		(136 137 138 139 140 141 142 143)	coat
		(1 2 33)	simpleGrading 	(1.000000 1.000000 1.000000)

	hex
		(144 145 146 147 148 149 150 151)
		(1 17 600)	simpleGrading 	(1.000000 1.000000 1.000000)

	hex
		(152 153 154 155 156 157 158 159)	coat
		(1 2 600)	simpleGrading 	(1.000000 1.000000 1.000000)

	hex
		(160 161 162 163 164 165 166 167)	wall
		(1 8 600)	simpleGrading 	(1.000000 1.000000 1.000000)

	hex
		(168 169 170 171 172 173 174 175)	coat
		(1 2 600)	simpleGrading 	(1.000000 1.000000 1.000000)

	hex
		(176 177 178 179 180 181 182 183)
		(1 17 600)	simpleGrading 	(1.000000 1.000000 1.000000)

	hex
		(184 185 186 187 188 189 190 191)
		(1 17 600)	simpleGrading 	(1.000000 1.000000 1.000000)

	hex
		(192 193 194 195 196 197 198 199)	coat
		(1 2 600)	simpleGrading 	(1.000000 1.000000 1.000000)

	hex
		(200 201 202 203 204 205 206 207)	wall
		(1 8 600)	simpleGrading 	(1.000000 1.000000 1.000000)

	hex
		(208 209 210 211 212 213 214 215)	coat
		(1 2 600)	simpleGrading 	(1.000000 1.000000 1.000000)

	hex
		(216 217 218 219 220 221 222 223)
		(1 17 600)	simpleGrading 	(1.000000 1.000000 1.000000)

	hex
		(224 225 226 227 228 229 230 231)
		(1 17 33)	simpleGrading 	(1.000000 1.000000 1.000000)

	hex
		(232 233 234 235 236 237 238 239)	coat
		(1 2 33)	simpleGrading 	(1.000000 1.000000 1.000000)

	hex
		(240 241 242 243 244 245 246 247)	wall
		(1 8 33)	simpleGrading 	(1.000000 1.000000 1.000000)

	hex
		(248 249 250 251 252 253 254 255)	coat
		(1 2 33)	simpleGrading 	(1.000000 1.000000 1.000000)

	hex
		(256 257 258 259 260 261 262 263)	coat
		(1 2 33)	simpleGrading 	(1.000000 1.000000 1.000000)

	hex
		(264 265 266 267 268 269 270 271)	wall
		(1 8 33)	simpleGrading 	(1.000000 1.000000 1.000000)

	hex
		(272 273 274 275 276 277 278 279)	coat
		(1 2 33)	simpleGrading 	(1.000000 1.000000 1.000000)

	hex
		(280 281 282 283 284 285 286 287)
		(1 17 33)	simpleGrading 	(1.000000 1.000000 1.000000)

	hex
		(288 289 290 291 292 293 294 295)
		(1 17 1333)	simpleGrading 	(1.000000 1.000000 1.000000)

	hex
		(296 297 298 299 300 301 302 303)
		(1 2 1333)	simpleGrading 	(1.000000 1.000000 1.000000)

	hex
		(304 305 306 307 308 309 310 311)
		(1 8 1333)	simpleGrading 	(1.000000 1.000000 1.000000)

	hex
		(312 313 314 315 316 317 318 319)
		(1 2 1333)	simpleGrading 	(1.000000 1.000000 1.000000)

	hex
		(320 321 322 323 324 325 326 327)
		(1 17 1333)	simpleGrading 	(1.000000 1.000000 1.000000)

	hex
		(328 329 330 331 332 333 334 335)
		(1 17 1333)	simpleGrading 	(1.000000 1.000000 1.000000)

	hex
		(336 337 338 339 340 341 342 343)
		(1 2 1333)	simpleGrading 	(1.000000 1.000000 1.000000)

	hex
		(344 345 346 347 348 349 350 351)
		(1 8 1333)	simpleGrading 	(1.000000 1.000000 1.000000)

	hex
		(352 353 354 355 356 357 358 359)
		(1 2 1333)	simpleGrading 	(1.000000 1.000000 1.000000)

	hex
		(360 361 362 363 364 365 366 367)
		(1 17 1333)	simpleGrading 	(1.000000 1.000000 1.000000)

); 

boundary 
( 
	emptyLeft
	{
		type empty;
		faces
		(
			(1 2 6 5)
			(9 10 14 13)
			(17 18 22 21)
			(25 26 30 29)
			(33 34 38 37)
			(41 42 46 45)
			(49 50 54 53)
			(57 58 62 61)
			(65 66 70 69)
			(73 74 78 77)
			(81 82 86 85)
			(89 90 94 93)
			(97 98 102 101)
			(105 106 110 109)
			(113 114 118 117)
			(121 122 126 125)
			(129 130 134 133)
			(137 138 142 141)
			(145 146 150 149)
			(153 154 158 157)
			(161 162 166 165)
			(169 170 174 173)
			(177 178 182 181)
			(185 186 190 189)
			(193 194 198 197)
			(201 202 206 205)
			(209 210 214 213)
			(217 218 222 221)
			(225 226 230 229)
			(233 234 238 237)
			(241 242 246 245)
			(249 250 254 253)
			(257 258 262 261)
			(265 266 270 269)
			(273 274 278 277)
			(281 282 286 285)
			(289 290 294 293)
			(297 298 302 301)
			(305 306 310 309)
			(313 314 318 317)
			(321 322 326 325)
			(329 330 334 333)
			(337 338 342 341)
			(345 346 350 349)
			(353 354 358 357)
			(361 362 366 365)
		);
	}

	emptyRight
	{
		type empty;
		faces
		(
			(0 3 7 4)
			(8 11 15 12)
			(16 19 23 20)
			(24 27 31 28)
			(32 35 39 36)
			(40 43 47 44)
			(48 51 55 52)
			(56 59 63 60)
			(64 67 71 68)
			(72 75 79 76)
			(80 83 87 84)
			(88 91 95 92)
			(96 99 103 100)
			(104 107 111 108)
			(112 115 119 116)
			(120 123 127 124)
			(128 131 135 132)
			(136 139 143 140)
			(144 147 151 148)
			(152 155 159 156)
			(160 163 167 164)
			(168 171 175 172)
			(176 179 183 180)
			(184 187 191 188)
			(192 195 199 196)
			(200 203 207 204)
			(208 211 215 212)
			(216 219 223 220)
			(224 227 231 228)
			(232 235 239 236)
			(240 243 247 244)
			(248 251 255 252)
			(256 259 263 260)
			(264 267 271 268)
			(272 275 279 276)
			(280 283 287 284)
			(288 291 295 292)
			(296 299 303 300)
			(304 307 311 308)
			(312 315 319 316)
			(320 323 327 324)
			(328 331 335 332)
			(336 339 343 340)
			(344 347 351 348)
			(352 355 359 356)
			(360 363 367 364)
		);
	}

	symmetryTop
	{
		type symmetryPlane;
		faces
		(
			(75 74 78 79)
			(219 218 222 223)
			(283 282 286 287)
			(363 362 366 367)
		);
	}

	symmetryBottom
	{
		type symmetryPlane;
		faces
		(
			(0 1 5 4)
			(144 145 149 148)
			(224 225 229 228)
			(288 289 293 292)
		);
	}

	walls
	{
		type wall;
		faces
		(
			(4 5 6 7)
			(76 77 78 79)
			(80 81 85 84)
			(139 138 142 143)
			(144 145 146 147)
			(180 181 182 183)
			(188 189 190 191)
			(216 217 218 219)
			(251 250 254 255)
			(256 257 261 260)
			(320 321 322 323)
			(328 329 330 331)
		);
	}

	inlet
	{
		type patch;
		faces
		(
			(0 1 2 3)
			(8 9 10 11)
			(16 17 18 19)
			(24 25 26 27)
			(32 33 34 35)
			(40 41 42 43)
			(48 49 50 51)
			(56 57 58 59)
			(64 65 66 67)
			(72 73 74 75)
		);
	}

	outlet
	{
		type patch;
		faces
		(
			(292 293 294 295)
			(300 301 302 303)
			(308 309 310 311)
			(316 317 318 319)
			(324 325 326 327)
			(332 333 334 335)
			(340 341 342 343)
			(348 349 350 351)
			(356 357 358 359)
			(364 365 366 367)
		);
	}

	masterPerp
	{
		type patch;
		faces
		(
			(12 13 14 15)
			(20 21 22 23)
			(28 29 30 31)
			(36 37 38 39)
			(44 45 46 47)
			(52 53 54 55)
			(60 61 62 63)
			(68 69 70 71)
			(84 85 86 87)
			(92 93 94 95)
			(100 101 102 103)
			(108 109 110 111)
			(116 117 118 119)
			(124 125 126 127)
			(132 133 134 135)
			(140 141 142 143)
			(148 149 150 151)
			(156 157 158 159)
			(164 165 166 167)
			(172 173 174 175)
			(196 197 198 199)
			(204 205 206 207)
			(212 213 214 215)
			(220 221 222 223)
			(228 229 230 231)
			(236 237 238 239)
			(244 245 246 247)
			(252 253 254 255)
			(260 261 262 263)
			(268 269 270 271)
			(276 277 278 279)
			(284 285 286 287)
		);
	}

	slavePerp
	{
		type patch;
		faces
		(
			(80 81 82 83)
			(88 89 90 91)
			(96 97 98 99)
			(104 105 106 107)
			(112 113 114 115)
			(120 121 122 123)
			(128 129 130 131)
			(136 137 138 139)
			(152 153 154 155)
			(160 161 162 163)
			(168 169 170 171)
			(176 177 178 179)
			(184 185 186 187)
			(192 193 194 195)
			(200 201 202 203)
			(208 209 210 211)
			(224 225 226 227)
			(232 233 234 235)
			(240 241 242 243)
			(248 249 250 251)
			(256 257 258 259)
			(264 265 266 267)
			(272 273 274 275)
			(280 281 282 283)
			(288 289 290 291)
			(296 297 298 299)
			(304 305 306 307)
			(312 313 314 315)
			(336 337 338 339)
			(344 345 346 347)
			(352 353 354 355)
			(360 361 362 363)
		);
	}

	masterHor
	{
		type patch;
		faces
		(
			(3 2 6 7)
			(11 10 14 15)
			(19 18 22 23)
			(27 26 30 31)
			(35 34 38 39)
			(43 42 46 47)
			(51 50 54 55)
			(59 58 62 63)
			(67 66 70 71)
			(83 82 86 87)
			(91 90 94 95)
			(99 98 102 103)
			(107 106 110 111)
			(115 114 118 119)
			(123 122 126 127)
			(131 130 134 135)
			(147 146 150 151)
			(155 154 158 159)
			(163 162 166 167)
			(171 170 174 175)
			(179 178 182 183)
			(187 186 190 191)
			(195 194 198 199)
			(203 202 206 207)
			(211 210 214 215)
			(227 226 230 231)
			(235 234 238 239)
			(243 242 246 247)
			(259 258 262 263)
			(267 266 270 271)
			(275 274 278 279)
			(291 290 294 295)
			(299 298 302 303)
			(307 306 310 311)
			(315 314 318 319)
			(323 322 326 327)
			(331 330 334 335)
			(339 338 342 343)
			(347 346 350 351)
			(355 354 358 359)
		);
	}

	slaveHor
	{
		type patch;
		faces
		(
			(8 9 13 12)
			(16 17 21 20)
			(24 25 29 28)
			(32 33 37 36)
			(40 41 45 44)
			(48 49 53 52)
			(56 57 61 60)
			(64 65 69 68)
			(72 73 77 76)
			(88 89 93 92)
			(96 97 101 100)
			(104 105 109 108)
			(112 113 117 116)
			(120 121 125 124)
			(128 129 133 132)
			(136 137 141 140)
			(152 153 157 156)
			(160 161 165 164)
			(168 169 173 172)
			(176 177 181 180)
			(184 185 189 188)
			(192 193 197 196)
			(200 201 205 204)
			(208 209 213 212)
			(216 217 221 220)
			(232 233 237 236)
			(240 241 245 244)
			(248 249 253 252)
			(264 265 269 268)
			(272 273 277 276)
			(280 281 285 284)
			(296 297 301 300)
			(304 305 309 308)
			(312 313 317 316)
			(320 321 325 324)
			(328 329 333 332)
			(336 337 341 340)
			(344 345 349 348)
			(352 353 357 356)
			(360 361 365 364)
		);
	}

	masterVer
	{
		type patch;
		faces
		(
		);
	}

	slaveVer
	{
		type patch;
		faces
		(
		);
	}

); 

mergePatchPairs 
( 
); 

// ************************************************************************* //

