/*--------------------------------*- C++ -*----------------------------------*\
| =========                 |                                                 |
| \\      /  F ield         | OpenFOAM: The Open Source CFD Toolbox           |
|  \\    /   O peration     | Version:  4.1                                   |
|   \\  /    A nd           | Web:      www.OpenFOAM.org                      |
|    \\/     M anipulation  |                                                 |
\*---------------------------------------------------------------------------*/
FoamFile
{
    version     2.0;
    format      ascii;
    class       volScalarField;
    location    "0";
    object      T;
}
// * * * * * * * * * * * * * * * * * * * * * * * * * * * * * * * * * * * * * //

dimensions      [0 0 0 1 0 0 0];

// internalField   uniform isoT;
internalField   initT; 

boundaryField
{
    infinity
    {
        type            fixedValue;
        // value           uniform isoT;
        value           uniform boundT;
    }
    sphere
    {
        type            fixedValue;
        // value           uniform isoT;
        value           uniform boundT;
    }
}
