FoamFile
{
    version     2.0;
    format      ascii;
    class       dictionary;
    object      createPatchDict;
}
pointSync false;
patches
(
        {
                name    inletCyl;
                patchInfo
                {
                        type patch;
                }
                constructFrom   set;
                set inletCyl;
        }
);
