/*--------------------------------*- C++ -*----------------------------------*\
| =========                 |                                                 |
| \\      /  F ield         | OpenFOAM: The Open Source CFD Toolbox           |
|  \\    /   O peration     | Version:  3.0.1                                 |
|   \\  /    A nd           | Web:      www.OpenFOAM.org                      |
|    \\/     M anipulation  |                                                 |
\*---------------------------------------------------------------------------*/
FoamFile
{
    version     2.0;
    format      ascii;
    class       dictionary;
    location    "system";
    object      fvSchemes;
}
// * * * * * * * * * * * * * * * * * * * * * * * * * * * * * * * * * * * * * //


ddtSchemes
{
    default                             steadyState;
    // default                             Euler;
}

gradSchemes
{
    default                             Gauss linear;
    grad(U)                             cellLimited Gauss linear 0.5;
}

divSchemes
{
    // default                             Gauss upwind phi;
    // default                             bounded Gauss upwind phi;
    default                             bounded Gauss upwind;
    div(((rho*nuEff)*dev2(T(grad(U))))) Gauss linear;
    div(((rho*nuEff)*dev2(T(grad(UD))))) Gauss linear;
//    div(phiRho,(0.5*magSqr(U)))         Gauss linear;
}

laplacianSchemes
{
    // default                             Gauss linear limited corrected 0.2;
    //  default                             Gauss linear uncorrected;       //orthogonal mesh
    //    // default                             Gauss upwind banana;       //orthogonal mesh
    default                               		Gauss linear corrected 0.5;       //orthogonal mesh
}

interpolationSchemes
{
    default                             linear;
    flux((rho*HbyA))                    linear;
    flux(HbyA)                          linear;
    interpolate(rho)                    linear;
}

snGradSchemes
{
    default                             limited corrected 0.5;
    // default                             uncorrected;                            // orthogonal mesh
}

fluxRequired
{
    default         no;
    p;
}

wallDist
{
    method          meshWave;
    correctWalls    true;
}

// ************************************************************************* //
