/*--------------------------------*- C++ -*----------------------------------*\
  =========                 |
  \\      /  F ield         | OpenFOAM: The Open Source CFD Toolbox
   \\    /   O peration     | Website:  https://openfoam.org
    \\  /    A nd           | Version:  10
     \\/     M anipulation  |
\*---------------------------------------------------------------------------*/
FoamFile
{
    version     1.0;
    format      ascii;
    class       volScalarField;
    object      nameSet;
}
// * * * * * * * * * * * * * * * * * * * * * * * * * * * * * * * * * * * * * //

dimensions      [0 0 0 0 0 0 0];

internalField   uniform wChSpSet;

boundaryField
{
    inlet
    {
        type            fixedValue;
        value           $internalField;
    }
    outlet
    {
        type            zeroGradient;
    }
    sides
    {
        type            zeroGradient;
    }
}

// ************************************************************************* //
