/*--------------------------------*- C++ -*----------------------------------*\
| =========                 |                                                 |
| \\      /  F ield         | OpenFOAM: The Open Source CFD Toolbox           |
|  \\    /   O peration     | Version:  2.3.0                                 |
|   \\  /    A nd           | Web:      www.OpenFOAM.org                      |
|    \\/     M anipulation  |                                                 |
\*---------------------------------------------------------------------------*/
FoamFile
{
    version     2.0;
    format      ascii;
    class       volScalarField;
    location    "0";
    object      p;
}
// * * * * * * * * * * * * * * * * * * * * * * * * * * * * * * * * * * * * * //

dimensions      [1 -1 -2 0 0 0 0];

internalField   uniform 501325; //thisline

boundaryField
{
    inlet
    {
        type            zeroGradient;
    }
    outlet
    {
        type            totalPressure;
//        rho             rho;
        p0              uniform 501325;
        value           uniform 501325;
    
        // Optional entries
        U               U;
        phi             phi;
    }
    "(walls|inletCyl)"
    {
        type            zeroGradient;
    }
    
    cylinder
//   sides 
    {
	    type zeroGradient;
        // type            codedMixed;
        // refValue        uniform 0;
        // refGradient        uniform 0;
        // valueFraction uniform 0;
        
        // name            problemWithP;        //The name of the dynamically created BC
        
        // code
        // #{
                    
        //     const volScalarField& T = this->db().lookupObject<volScalarField>("T");
        //     const volScalarField& rho = this->db().lookupObject<volScalarField>("rho");
        //    surfaceScalarField e_feld (fvc::snGrad(rho*0));
	    //     this->refGrad() =  e_feld.boundaryField()[patch().index()];
        // #};

    
    defaultFaces
    {
        type            empty;
    }
}

// ************************************************************************* //
